
  CDK     02121916553D

 36 37  0  0  0  0  0  0  0  0999 V2000
    2.9255   -3.4476   -1.4659 C   0  0  0  0  0  0  0  0  0  0  0  0
    2.4415   -2.4787   -0.4151 C   0  0  0  0  0  0  0  0  0  0  0  0
    1.9608   -2.8431    0.6315 O   0  0  0  0  0  0  0  0  0  0  0  0
    2.6462   -1.0622   -0.8641 N   0  0  0  0  0  0  0  0  0  0  0  0
    3.9866   -0.8411   -1.0888 C   0  0  0  0  0  0  0  0  0  0  0  0
    5.8465   -1.5124   -0.2350 C   0  0  0  0  0  0  0  0  0  0  0  0
    5.8763   -2.4793    0.9074 C   0  0  0  0  0  0  0  0  0  0  0  0
    6.9134   -0.3662   -1.5531 C   0  0  0  0  0  0  0  0  0  0  0  0
    8.3823   -0.5728   -1.7548 C   0  0  0  0  0  0  0  0  0  0  0  0
    5.8424    0.3996   -1.9620 N   0  0  0  0  0  0  0  0  0  0  0  0
    4.5711    0.3308   -1.6073 O   0  0  0  0  0  0  0  0  0  0  0  0
    2.1563   -0.1248    0.1995 S   0  0  0  0  0  0  0  0  0  0  0  0
    1.5927   -0.6521    1.4271 O   0  0  0  0  0  0  0  0  0  0  0  0
    2.2463    1.3086    0.0002 O   0  0  0  0  0  0  0  0  0  0  0  0
    2.2494    1.3580   -0.0067 C   0  0  0  0  0  0  0  0  0  0  0  0
    1.1047    2.1294    0.0029 C   0  0  0  0  0  0  0  0  0  0  0  0
    0.9603    3.6208    0.0123 C   0  0  0  0  0  0  0  0  0  0  0  0
    1.9380    4.2569   -1.0117 C   0  0  0  0  0  0  0  0  0  0  0  0
    1.5229    5.0858   -2.0299 N   0  0  0  0  0  0  0  0  0  0  0  0
    3.5746    3.6125   -0.4660 C   0  0  0  0  0  0  0  0  0  0  0  0
    3.5268    1.8406   -0.1960 C   0  0  0  0  0  0  0  0  0  0  0  0
    2.7561   -4.4831   -1.0946 H   0  0  0  0  0  0  0  0  0  0  0  0
    2.3487   -3.2698   -2.4010 H   0  0  0  0  0  0  0  0  0  0  0  0
    4.0105   -3.2679   -1.6373 H   0  0  0  0  0  0  0  0  0  0  0  0
    4.8278   -2.7373    1.1776 H   0  0  0  0  0  0  0  0  0  0  0  0
    6.4304   -3.3888    0.5844 H   0  0  0  0  0  0  0  0  0  0  0  0
    6.3915   -1.9936    1.7662 H   0  0  0  0  0  0  0  0  0  0  0  0
    8.7152   -1.4030   -1.0925 H   0  0  0  0  0  0  0  0  0  0  0  0
    8.5578   -0.8322   -2.8229 H   0  0  0  0  0  0  0  0  0  0  0  0
    8.9099    0.3712   -1.4914 H   0  0  0  0  0  0  0  0  0  0  0  0
    0.1153    1.6463    0.0044 H   0  0  0  0  0  0  0  0  0  0  0  0
    0.2343    4.0993    0.6876 H   0  0  0  0  0  0  0  0  0  0  0  0
    0.5094    5.1854   -1.9719 H   0  0  0  0  0  0  0  0  0  0  0  0
    1.9778    5.9914   -1.9144 H   0  0  0  0  0  0  0  0  0  0  0  0
    4.4252    4.3012   -0.3458 H   0  0  0  0  0  0  0  0  0  0  0  0
    4.4614    1.2586   -0.1943 H   0  0  0  0  0  0  0  0  0  0  0  0
  1  2  1  0  0  0  0 
  2  3  2  0  0  0  0 
  2  4  1  0  0  0  0 
  4  5  1  0  0  0  0 
  5  6  2  0  0  0  0 
  6  7  1  0  0  0  0 
  6  8  1  0  0  0  0 
  8  9  1  0  0  0  0 
  8 10  2  0  0  0  0 
 10 11  1  0  0  0  0 
  5 11  1  0  0  0  0 
  4 12  1  0  0  0  0 
 12 13  2  0  0  0  0 
 12 14  2  0  0  0  0 
 12 15  1  0  0  0  0 
 15 16  2  0  0  0  0 
 16 17  1  0  0  0  0 
 17 18  2  0  0  0  0 
 18 19  1  0  0  0  0 
 18 20  1  0  0  0  0 
 20 21  2  0  0  0  0 
 15 21  1  0  0  0  0 
  1 22  1  0  0  0  0 
  1 23  1  0  0  0  0 
  1 24  1  0  0  0  0 
  7 25  1  0  0  0  0 
  7 26  1  0  0  0  0 
  7 27  1  0  0  0  0 
  9 28  1  0  0  0  0 
  9 29  1  0  0  0  0 
  9 30  1  0  0  0  0 
 16 31  1  0  0  0  0 
 17 32  1  0  0  0  0 
 19 33  1  0  0  0  0 
 19 34  1  0  0  0  0 
 20 35  1  0  0  0  0 
 21 36  1  0  0  0  0 
M  END
$$$$
